-------------------------------------------------------
          Amber 14 SANDER                              2014
          -------------------------------------------------------

  [-O]verwriting output

File Assignments:

 Here is the input file:

NPT 20nsMD
 &cntrl
  imin = 0, irest = 1, ntx = 5,
  ntb = 1, pres0 = 0,
  cut = 10, ntr = 1,
  ntc = 2, ntf = 2,
  tempi = 280.0, temp0 = 280.0,
  ntt = 3, gamma_ln = 1.0,
  nstlim = 1250000, dt = 0.002,
  ntpr = 500, ntwx = 125, ntwr = 1000,
  nscm = 500, ioutfm = 1, iwrap = 1
 /
Hold the CNT fixed
500.0
RES 1 2
END
END

--------------------------------------------------------------------------------
   1.  RESOURCE   USE:
--------------------------------------------------------------------------------

 getting new box info from bottom of inpcrd
 NATOM  =   24736 NTYPES =       3 NBONH =   21936 MBONA  =    4098
 NTHETH =       0 MTHETA =    7992 NPHIH =       0 MPHIA  =   15628
 NHPARM =       0 NPARM  =       0 NNB   =   53075 NRES   =    7314
 NBONA  =    4098 NTHETA =    7992 NPHIA =   15628 NUMBND =      10
 NUMANG =      10 NPTRA  =       3 NATYP =       7 NPHB   =       1
 IFBOX  =       1 NMXRS  =    1400 IFCAP =       0 NEXTRA =       0
 NCOPY  =       0

     BOX TYPE: RECTILINEAR

--------------------------------------------------------------------------------
   2.  CONTROL  DATA  FOR  THE  RUN
--------------------------------------------------------------------------------

default_name

General flags:
     imin    =       0, nmropt  =       0

Nature and format of input:
     ntx     =       5, irest   =       1, ntrx    =       1

Nature and format of output:
     ntxo    =       1, ntpr    =     500, ntrx    =       1, ntwr    =    1000
     iwrap   =       1, ntwx    =     125, ntwv    =       0, ntwe    =       0
     ioutfm  =       1, ntwprt  =       0, idecomp =       0, rbornstat=      0

Potential function:
     ntf     =       2, ntb     =       1, igb     =       0, nsnb    =      25
     ipol    =       0, gbsa    =       0, iesp    =       0
     dielc   =   1.00000, cut     =  10.00000, intdiel =   1.00000

Frozen or restrained atoms:
     ibelly  =       0, ntr     =       1
     restraint_wt =   0.00000

Molecular dynamics:
     nstlim  =   1250000, nscm    =         0, nrespa  =         1
     t       =   0.00000, dt      =   0.00200, vlimit  =  20.00000

Langevin dynamics temperature regulation:
     ig      =   71277
     temp0   = 280.00000, tempi   = 280.00000, gamma_ln=   1.00000

SHAKE:
     ntc     =       2, jfastw  =       0
     tol     =   0.00001

Ewald parameters:
     verbose =       0, ew_type =       0, nbflag  =       1, use_pme =       1
     vdwmeth =       1, eedmeth =       1, netfrc  =       1
     Box X =   87.036   Box Y =   85.967   Box Z =   32.220
     Alpha =   90.000   Beta  =   90.000   Gamma =   90.000
     NFFT1 =   90       NFFT2 =   90       NFFT3 =   36
     Cutoff=   10.000   Tol   =0.100E-04
     Ewald Coefficient =  0.27511
     Interpolation order =    4

    LOADING THE CONSTRAINED ATOMS AS GROUPS

   5.  REFERENCE ATOM COORDINATES

  default_name
    ----- READING GROUP     1; TITLE:
 Hold the CNT fixed

     GROUP    1 HAS HARMONIC CONSTRAINTS   500.00000
 GRP    1 RES    1 TO     2
      Number of atoms in this group  =  2800
    ----- END OF GROUP READ -----

--------------------------------------------------------------------------------
   3.  ATOMIC COORDINATES AND VELOCITIES
--------------------------------------------------------------------------------

default_name
 begin time read from input coords = 12990.000 ps

 Number of triangulated 3-point waters found:     7312

     Sum of charges from parm topology file =   0.00000000
     Forcing neutrality...

--------------------------------------------------------------------------------
   4.  RESULTS
 NSTEP =      500   TIME(PS) =   12991.000  TEMP(K) =   276.37  PRESS =     0.0
 Etot   =    -55088.8268  EKtot   =     14353.7225  EPtot      =    -69442.5493
 BOND   =      1118.2173  ANGLE   =       762.2623  DIHED      =      1137.6521
 1-4 NB =      4384.3962  1-4 EEL =         0.0000  VDWAALS    =     13769.4217
 EELEC  =    -92367.3397  EHBOND  =         0.0000  RESTRAINT  =      1752.8407
 EAMBER (non-restraint)  =    -71195.3901
 Ewald error estimate:   0.8492E-04
 ------------------------------------------------------------------------------

      A V E R A G E S   O V E R    2500 S T E P S

 NSTEP =  1250000   TIME(PS) =   15490.000  TEMP(K) =   280.04  PRESS =     0.0
 Etot   =    -54899.6773  EKtot   =     14544.2753  EPtot      =    -69443.9526
 BOND   =      1142.7499  ANGLE   =       791.9189  DIHED      =      1153.8068
 1-4 NB =      4382.8620  1-4 EEL =         0.0000  VDWAALS    =     13883.3841
 EELEC  =    -92625.4506  EHBOND  =         0.0000  RESTRAINT  =      1826.7763
 EAMBER (non-restraint)  =    -71270.7289
 Ewald error estimate:   0.8247E-04
 ------------------------------------------------------------------------------

      R M S  F L U C T U A T I O N S

 NSTEP =  1250000   TIME(PS) =   15490.000  TEMP(K) =     1.73  PRESS =     0.0
 Etot   =       162.9728  EKtot   =        89.9351  EPtot      =       135.1390
 BOND   =        24.7154  ANGLE   =        17.7216  DIHED      =        17.0985
 1-4 NB =         2.7511  1-4 EEL =         0.0000  VDWAALS    =       141.1380
 EELEC  =       214.5489  EHBOND  =         0.0000  RESTRAINT  =        36.6887
 EAMBER (non-restraint)  =        98.4503
 Ewald error estimate:   0.5925E-04
 ------------------------------------------------------------------------------
