-------------------------------------------------------
          Amber 14 SANDER                              2014
          -------------------------------------------------------

  [-O]verwriting output

File Assignments:

 Here is the input file:

NPT 20nsMD
 &cntrl
  imin = 0, irest = 1, ntx = 5,
  ntb = 1, pres0 = 0,
  cut = 10, ntr = 1,
  ntc = 2, ntf = 2,
  tempi = 280.0, temp0 = 280.0,
  ntt = 3, gamma_ln = 1.0,
  nstlim = 1250000, dt = 0.002,
  ntpr = 500, ntwx = 125, ntwr = 1000,
  nscm = 500, ioutfm = 1, iwrap = 1
 /
Hold the CNT fixed
500.0
RES 1 2
END
END

--------------------------------------------------------------------------------
   1.  RESOURCE   USE:
--------------------------------------------------------------------------------

 getting new box info from bottom of inpcrd
 NATOM  =   24736 NTYPES =       3 NBONH =   21936 MBONA  =    4098
 NTHETH =       0 MTHETA =    7992 NPHIH =       0 MPHIA  =   15628
 NHPARM =       0 NPARM  =       0 NNB   =   53075 NRES   =    7314
 NBONA  =    4098 NTHETA =    7992 NPHIA =   15628 NUMBND =      10
 NUMANG =      10 NPTRA  =       3 NATYP =       7 NPHB   =       1
 IFBOX  =       1 NMXRS  =    1400 IFCAP =       0 NEXTRA =       0
 NCOPY  =       0

     BOX TYPE: RECTILINEAR

--------------------------------------------------------------------------------
   2.  CONTROL  DATA  FOR  THE  RUN
--------------------------------------------------------------------------------

default_name

General flags:
     imin    =       0, nmropt  =       0

Nature and format of input:
     ntx     =       5, irest   =       1, ntrx    =       1

Nature and format of output:
     ntxo    =       1, ntpr    =     500, ntrx    =       1, ntwr    =    1000
     iwrap   =       1, ntwx    =     125, ntwv    =       0, ntwe    =       0
     ioutfm  =       1, ntwprt  =       0, idecomp =       0, rbornstat=      0

Potential function:
     ntf     =       2, ntb     =       1, igb     =       0, nsnb    =      25
     ipol    =       0, gbsa    =       0, iesp    =       0
     dielc   =   1.00000, cut     =  10.00000, intdiel =   1.00000

Frozen or restrained atoms:
     ibelly  =       0, ntr     =       1
     restraint_wt =   0.00000

Molecular dynamics:
     nstlim  =   1250000, nscm    =         0, nrespa  =         1
     t       =   0.00000, dt      =   0.00200, vlimit  =  20.00000

Langevin dynamics temperature regulation:
     ig      =   71277
     temp0   = 280.00000, tempi   = 280.00000, gamma_ln=   1.00000

SHAKE:
     ntc     =       2, jfastw  =       0
     tol     =   0.00001

Ewald parameters:
     verbose =       0, ew_type =       0, nbflag  =       1, use_pme =       1
     vdwmeth =       1, eedmeth =       1, netfrc  =       1
     Box X =   87.036   Box Y =   85.967   Box Z =   32.220
     Alpha =   90.000   Beta  =   90.000   Gamma =   90.000
     NFFT1 =   90       NFFT2 =   90       NFFT3 =   36
     Cutoff=   10.000   Tol   =0.100E-04
     Ewald Coefficient =  0.27511
     Interpolation order =    4

    LOADING THE CONSTRAINED ATOMS AS GROUPS

   5.  REFERENCE ATOM COORDINATES

  default_name
    ----- READING GROUP     1; TITLE:
 Hold the CNT fixed

     GROUP    1 HAS HARMONIC CONSTRAINTS   500.00000
 GRP    1 RES    1 TO     2
      Number of atoms in this group  =  2800
    ----- END OF GROUP READ -----

--------------------------------------------------------------------------------
   3.  ATOMIC COORDINATES AND VELOCITIES
--------------------------------------------------------------------------------

default_name
 begin time read from input coords = 22990.000 ps

 Number of triangulated 3-point waters found:     7312

     Sum of charges from parm topology file =   0.00000000
     Forcing neutrality...

--------------------------------------------------------------------------------
   4.  RESULTS
 NSTEP =      500   TIME(PS) =   22991.000  TEMP(K) =   279.60  PRESS =     0.0
 Etot   =    -54026.2483  EKtot   =     14521.6173  EPtot      =    -68547.8656
 BOND   =      1212.3652  ANGLE   =       867.7537  DIHED      =      1507.9229
 1-4 NB =      4359.4921  1-4 EEL =         0.0000  VDWAALS    =     13511.4542
 EELEC  =    -91945.0417  EHBOND  =         0.0000  RESTRAINT  =      1938.1880
 EAMBER (non-restraint)  =    -70486.0536
 Ewald error estimate:   0.4120E-05
 ------------------------------------------------------------------------------

      A V E R A G E S   O V E R    2500 S T E P S

 NSTEP =  1250000   TIME(PS) =   25490.000  TEMP(K) =   280.01  PRESS =     0.0
 Etot   =    -54207.1158  EKtot   =     14543.0770  EPtot      =    -68750.1927
 BOND   =      1231.4920  ANGLE   =       887.8152  DIHED      =      1512.2397
 1-4 NB =      4359.3429  1-4 EEL =         0.0000  VDWAALS    =     13889.3029
 EELEC  =    -92631.1429  EHBOND  =         0.0000  RESTRAINT  =      2000.7575
 EAMBER (non-restraint)  =    -70750.9502
 Ewald error estimate:   0.8248E-04
 ------------------------------------------------------------------------------

      R M S  F L U C T U A T I O N S

 NSTEP =  1250000   TIME(PS) =   25490.000  TEMP(K) =     1.68  PRESS =     0.0
 Etot   =       157.7996  EKtot   =        87.4865  EPtot      =       130.2457
 BOND   =        26.0695  ANGLE   =        19.4675  DIHED      =        21.2011
 1-4 NB =         2.8153  1-4 EEL =         0.0000  VDWAALS    =       139.6340
 EELEC  =       212.9271  EHBOND  =         0.0000  RESTRAINT  =        42.5974
 EAMBER (non-restraint)  =        87.6484
 Ewald error estimate:   0.6007E-04
 ------------------------------------------------------------------------------
