-------------------------------------------------------
          Amber 14 SANDER                              2014
          -------------------------------------------------------

  [-O]verwriting output

File Assignments:

 Here is the input file:

NPT 20nsMD
 &cntrl
  imin = 0, irest = 1, ntx = 5,
  ntb = 1, pres0 = 0,
  cut = 10, ntr = 1,
  ntc = 2, ntf = 2,
  tempi = 280.0, temp0 = 280.0,
  ntt = 3, gamma_ln = 1.0,
  nstlim = 1250000, dt = 0.002,
  ntpr = 500, ntwx = 125, ntwr = 1000,
  nscm = 500, ioutfm = 1, iwrap = 1
 /
Hold the CNT fixed
500.0
RES 1 2
END
END

--------------------------------------------------------------------------------
   1.  RESOURCE   USE:
--------------------------------------------------------------------------------

 getting new box info from bottom of inpcrd
 NATOM  =   24736 NTYPES =       3 NBONH =   21936 MBONA  =    4098
 NTHETH =       0 MTHETA =    7992 NPHIH =       0 MPHIA  =   15628
 NHPARM =       0 NPARM  =       0 NNB   =   53075 NRES   =    7314
 NBONA  =    4098 NTHETA =    7992 NPHIA =   15628 NUMBND =      10
 NUMANG =      10 NPTRA  =       3 NATYP =       7 NPHB   =       1
 IFBOX  =       1 NMXRS  =    1400 IFCAP =       0 NEXTRA =       0
 NCOPY  =       0

     BOX TYPE: RECTILINEAR

--------------------------------------------------------------------------------
   2.  CONTROL  DATA  FOR  THE  RUN
--------------------------------------------------------------------------------

default_name

General flags:
     imin    =       0, nmropt  =       0

Nature and format of input:
     ntx     =       5, irest   =       1, ntrx    =       1

Nature and format of output:
     ntxo    =       1, ntpr    =     500, ntrx    =       1, ntwr    =    1000
     iwrap   =       1, ntwx    =     125, ntwv    =       0, ntwe    =       0
     ioutfm  =       1, ntwprt  =       0, idecomp =       0, rbornstat=      0

Potential function:
     ntf     =       2, ntb     =       1, igb     =       0, nsnb    =      25
     ipol    =       0, gbsa    =       0, iesp    =       0
     dielc   =   1.00000, cut     =  10.00000, intdiel =   1.00000

Frozen or restrained atoms:
     ibelly  =       0, ntr     =       1
     restraint_wt =   0.00000

Molecular dynamics:
     nstlim  =   1250000, nscm    =         0, nrespa  =         1
     t       =   0.00000, dt      =   0.00200, vlimit  =  20.00000

Langevin dynamics temperature regulation:
     ig      =   71277
     temp0   = 280.00000, tempi   = 280.00000, gamma_ln=   1.00000

SHAKE:
     ntc     =       2, jfastw  =       0
     tol     =   0.00001

Ewald parameters:
     verbose =       0, ew_type =       0, nbflag  =       1, use_pme =       1
     vdwmeth =       1, eedmeth =       1, netfrc  =       1
     Box X =   87.036   Box Y =   85.967   Box Z =   32.220
     Alpha =   90.000   Beta  =   90.000   Gamma =   90.000
     NFFT1 =   90       NFFT2 =   90       NFFT3 =   36
     Cutoff=   10.000   Tol   =0.100E-04
     Ewald Coefficient =  0.27511
     Interpolation order =    4

    LOADING THE CONSTRAINED ATOMS AS GROUPS

   5.  REFERENCE ATOM COORDINATES

  default_name
    ----- READING GROUP     1; TITLE:
 Hold the CNT fixed

     GROUP    1 HAS HARMONIC CONSTRAINTS   500.00000
 GRP    1 RES    1 TO     2
      Number of atoms in this group  =  2800
    ----- END OF GROUP READ -----

--------------------------------------------------------------------------------
   3.  ATOMIC COORDINATES AND VELOCITIES
--------------------------------------------------------------------------------

default_name
 begin time read from input coords = 10490.000 ps

 Number of triangulated 3-point waters found:     7312

     Sum of charges from parm topology file =   0.00000000
     Forcing neutrality...

--------------------------------------------------------------------------------
   4.  RESULTS
 NSTEP =      500   TIME(PS) =   10491.000  TEMP(K) =   274.88  PRESS =     0.0
 Etot   =    -55518.0988  EKtot   =     14276.3058  EPtot      =    -69794.4046
 BOND   =      1095.6730  ANGLE   =       729.1575  DIHED      =      1083.4251
 1-4 NB =      4387.8101  1-4 EEL =         0.0000  VDWAALS    =     13814.7834
 EELEC  =    -92580.1451  EHBOND  =         0.0000  RESTRAINT  =      1674.8915
 EAMBER (non-restraint)  =    -71469.2960
 Ewald error estimate:   0.2078E-03
 ------------------------------------------------------------------------------

      A V E R A G E S   O V E R    2500 S T E P S

 NSTEP =  1250000   TIME(PS) =   12990.000  TEMP(K) =   280.03  PRESS =     0.0
 Etot   =    -55060.0999  EKtot   =     14544.2159  EPtot      =    -69604.3158
 BOND   =      1124.8554  ANGLE   =       764.7931  DIHED      =      1109.0906
 1-4 NB =      4385.7637  1-4 EEL =         0.0000  VDWAALS    =     13881.8693
 EELEC  =    -92628.8062  EHBOND  =         0.0000  RESTRAINT  =      1758.1183
 EAMBER (non-restraint)  =    -71362.4341
 Ewald error estimate:   0.8202E-04
 ------------------------------------------------------------------------------

      R M S  F L U C T U A T I O N S

 NSTEP =  1250000   TIME(PS) =   12990.000  TEMP(K) =     1.70  PRESS =     0.0
 Etot   =       159.4077  EKtot   =        88.5117  EPtot      =       132.2337
 BOND   =        24.1917  ANGLE   =        17.0497  DIHED      =        15.8329
 1-4 NB =         2.7394  1-4 EEL =         0.0000  VDWAALS    =       137.7744
 EELEC  =       213.5405  EHBOND  =         0.0000  RESTRAINT  =        33.9989
 EAMBER (non-restraint)  =        98.2347
 Ewald error estimate:   0.5859E-04
 ------------------------------------------------------------------------------
