-------------------------------------------------------
          Amber 14 SANDER                              2014
          -------------------------------------------------------

  [-O]verwriting output

File Assignments:

 Here is the input file:

NPT 20nsMD
 &cntrl
  imin = 0, irest = 1, ntx = 5,
  ntb = 1, pres0 = 0,
  cut = 10, ntr = 1,
  ntc = 2, ntf = 2,
  tempi = 280.0, temp0 = 280.0,
  ntt = 3, gamma_ln = 1.0,
  nstlim = 1250000, dt = 0.002,
  ntpr = 500, ntwx = 125, ntwr = 1000,
  nscm = 500, ioutfm = 1, iwrap = 1
 /
Hold the CNT fixed
500.0
RES 1 2
END
END

--------------------------------------------------------------------------------
   1.  RESOURCE   USE:
--------------------------------------------------------------------------------

 getting new box info from bottom of inpcrd
 NATOM  =   24736 NTYPES =       3 NBONH =   21936 MBONA  =    4098
 NTHETH =       0 MTHETA =    7992 NPHIH =       0 MPHIA  =   15628
 NHPARM =       0 NPARM  =       0 NNB   =   53075 NRES   =    7314
 NBONA  =    4098 NTHETA =    7992 NPHIA =   15628 NUMBND =      10
 NUMANG =      10 NPTRA  =       3 NATYP =       7 NPHB   =       1
 IFBOX  =       1 NMXRS  =    1400 IFCAP =       0 NEXTRA =       0
 NCOPY  =       0

     BOX TYPE: RECTILINEAR

--------------------------------------------------------------------------------
   2.  CONTROL  DATA  FOR  THE  RUN
--------------------------------------------------------------------------------

default_name

General flags:
     imin    =       0, nmropt  =       0

Nature and format of input:
     ntx     =       5, irest   =       1, ntrx    =       1

Nature and format of output:
     ntxo    =       1, ntpr    =     500, ntrx    =       1, ntwr    =    1000
     iwrap   =       1, ntwx    =     125, ntwv    =       0, ntwe    =       0
     ioutfm  =       1, ntwprt  =       0, idecomp =       0, rbornstat=      0

Potential function:
     ntf     =       2, ntb     =       1, igb     =       0, nsnb    =      25
     ipol    =       0, gbsa    =       0, iesp    =       0
     dielc   =   1.00000, cut     =  10.00000, intdiel =   1.00000

Frozen or restrained atoms:
     ibelly  =       0, ntr     =       1
     restraint_wt =   0.00000

Molecular dynamics:
     nstlim  =   1250000, nscm    =         0, nrespa  =         1
     t       =   0.00000, dt      =   0.00200, vlimit  =  20.00000

Langevin dynamics temperature regulation:
     ig      =   71277
     temp0   = 280.00000, tempi   = 280.00000, gamma_ln=   1.00000

SHAKE:
     ntc     =       2, jfastw  =       0
     tol     =   0.00001

Ewald parameters:
     verbose =       0, ew_type =       0, nbflag  =       1, use_pme =       1
     vdwmeth =       1, eedmeth =       1, netfrc  =       1
     Box X =   87.036   Box Y =   85.967   Box Z =   32.220
     Alpha =   90.000   Beta  =   90.000   Gamma =   90.000
     NFFT1 =   90       NFFT2 =   90       NFFT3 =   36
     Cutoff=   10.000   Tol   =0.100E-04
     Ewald Coefficient =  0.27511
     Interpolation order =    4

    LOADING THE CONSTRAINED ATOMS AS GROUPS

   5.  REFERENCE ATOM COORDINATES

  default_name
    ----- READING GROUP     1; TITLE:
 Hold the CNT fixed

     GROUP    1 HAS HARMONIC CONSTRAINTS   500.00000
 GRP    1 RES    1 TO     2
      Number of atoms in this group  =  2800
    ----- END OF GROUP READ -----

--------------------------------------------------------------------------------
   3.  ATOMIC COORDINATES AND VELOCITIES
--------------------------------------------------------------------------------

default_name
 begin time read from input coords = 25490.000 ps

 Number of triangulated 3-point waters found:     7312

     Sum of charges from parm topology file =   0.00000000
     Forcing neutrality...

--------------------------------------------------------------------------------
   4.  RESULTS
 NSTEP =      500   TIME(PS) =   25491.000  TEMP(K) =   281.99  PRESS =     0.0
 Etot   =    -54048.4461  EKtot   =     14645.7941  EPtot      =    -68694.2402
 BOND   =      1238.8453  ANGLE   =       884.2737  DIHED      =      1602.9054
 1-4 NB =      4351.8626  1-4 EEL =         0.0000  VDWAALS    =     13807.4936
 EELEC  =    -92548.7272  EHBOND  =         0.0000  RESTRAINT  =      1969.1063
 EAMBER (non-restraint)  =    -70663.3465
 Ewald error estimate:   0.5065E-04
 ------------------------------------------------------------------------------

      A V E R A G E S   O V E R    2500 S T E P S

 NSTEP =  1250000   TIME(PS) =   27990.000  TEMP(K) =   280.06  PRESS =     0.0
 Etot   =    -54060.2293  EKtot   =     14545.3426  EPtot      =    -68605.5719
 BOND   =      1253.0760  ANGLE   =       906.3716  DIHED      =      1601.8080
 1-4 NB =      4351.9894  1-4 EEL =         0.0000  VDWAALS    =     13896.5658
 EELEC  =    -92642.3500  EHBOND  =         0.0000  RESTRAINT  =      2026.9671
 EAMBER (non-restraint)  =    -70632.5390
 Ewald error estimate:   0.8044E-04
 ------------------------------------------------------------------------------

      R M S  F L U C T U A T I O N S

 NSTEP =  1250000   TIME(PS) =   27990.000  TEMP(K) =     1.73  PRESS =     0.0
 Etot   =       161.2447  EKtot   =        89.9309  EPtot      =       134.3582
 BOND   =        26.2742  ANGLE   =        19.7574  DIHED      =        21.8551
 1-4 NB =         2.8234  1-4 EEL =         0.0000  VDWAALS    =       141.9500
 EELEC  =       216.2394  EHBOND  =         0.0000  RESTRAINT  =        43.3472
 EAMBER (non-restraint)  =        91.0111
 Ewald error estimate:   0.5941E-04
 ------------------------------------------------------------------------------
