-------------------------------------------------------
          Amber 14 SANDER                              2014
          -------------------------------------------------------

  [-O]verwriting output

File Assignments:

 Here is the input file:

NPT 20nsMD
 &cntrl
  imin = 0, irest = 1, ntx = 5,
  ntb = 1, pres0 = 0,
  cut = 10, ntr = 1,
  ntc = 2, ntf = 2,
  tempi = 280.0, temp0 = 280.0,
  ntt = 3, gamma_ln = 1.0,
  nstlim = 10000, dt = 0.001,
  ntpr = 500, ntwx = 1, ntwr = 1000,
  nscm = 500, ioutfm = 1, iwrap = 1
 /
Hold the CNT fixed
500.0
RES 1 2
END
END

--------------------------------------------------------------------------------
   1.  RESOURCE   USE:
--------------------------------------------------------------------------------

 getting new box info from bottom of inpcrd

 NATOM  =   24736 NTYPES =       3 NBONH =   21936 MBONA  =    4098
 NTHETH =       0 MTHETA =    7992 NPHIH =       0 MPHIA  =   15628
 NHPARM =       0 NPARM  =       0 NNB   =   53075 NRES   =    7314
 NBONA  =    4098 NTHETA =    7992 NPHIA =   15628 NUMBND =      10
 NUMANG =      10 NPTRA  =       3 NATYP =       7 NPHB   =       1
 IFBOX  =       1 NMXRS  =    1400 IFCAP =       0 NEXTRA =       0
 NCOPY  =       0

     BOX TYPE: RECTILINEAR

--------------------------------------------------------------------------------
   2.  CONTROL  DATA  FOR  THE  RUN
--------------------------------------------------------------------------------

default_name

General flags:
     imin    =       0, nmropt  =       0

Nature and format of input:
     ntx     =       5, irest   =       1, ntrx    =       1

Nature and format of output:
     ntxo    =       1, ntpr    =     500, ntrx    =       1, ntwr    =    1000
     iwrap   =       1, ntwx    =       1, ntwv    =       0, ntwe    =       0
     ioutfm  =       1, ntwprt  =       0, idecomp =       0, rbornstat=      0

Potential function:
     ntf     =       2, ntb     =       1, igb     =       0, nsnb    =      25
     ipol    =       0, gbsa    =       0, iesp    =       0
     dielc   =   1.00000, cut     =  10.00000, intdiel =   1.00000

Frozen or restrained atoms:
     ibelly  =       0, ntr     =       1
     restraint_wt =   0.00000

Molecular dynamics:
     nstlim  =     10000, nscm    =         0, nrespa  =         1
     t       =   0.00000, dt      =   0.00100, vlimit  =  20.00000

Langevin dynamics temperature regulation:
     ig      =   71277
     temp0   = 280.00000, tempi   = 280.00000, gamma_ln=   1.00000

SHAKE:
     ntc     =       2, jfastw  =       0
     tol     =   0.00001

Ewald parameters:
     verbose =       0, ew_type =       0, nbflag  =       1, use_pme =       1
     vdwmeth =       1, eedmeth =       1, netfrc  =       1
     Box X =   87.036   Box Y =   85.967   Box Z =   32.220
     Alpha =   90.000   Beta  =   90.000   Gamma =   90.000
     NFFT1 =   90       NFFT2 =   90       NFFT3 =   32
     Cutoff=   10.000   Tol   =0.100E-04
     Ewald Coefficient =  0.27511
     Interpolation order =    4

    LOADING THE CONSTRAINED ATOMS AS GROUPS

   5.  REFERENCE ATOM COORDINATES

  defa
    ----- READING GROUP     1; TITLE:
 Hold the CNT fixed

     GROUP    1 HAS HARMONIC CONSTRAINTS   500.00000
 GRP    1 RES    1 TO     2
      Number of atoms in this group  =  2800
    ----- END OF GROUP READ -----

--------------------------------------------------------------------------------
   3.  ATOMIC COORDINATES AND VELOCITIES
--------------------------------------------------------------------------------

default_name
 begin time read from input coords =  5400.000 ps

 Number of triangulated 3-point waters found:     7312

     Sum of charges from parm topology file =   0.00000000
     Forcing neutrality...

--------------------------------------------------------------------------------
   4.  RESULTS
 NSTEP =      500   TIME(PS) =    5400.500  TEMP(K) =   275.92  PRESS =     0.0
 Etot   =    -57066.1299  EKtot   =     14330.4612  EPtot      =    -71396.5910
 BOND   =       809.8057  ANGLE   =       600.6307  DIHED      =       431.7483
 1-4 NB =      4444.0968  1-4 EEL =         0.0000  VDWAALS    =     13827.6690
 EELEC  =    -92679.2831  EHBOND  =         0.0000  RESTRAINT  =      1168.7415
 EAMBER (non-restraint)  =    -72565.3325
 Ewald error estimate:   0.1715E-03
 ------------------------------------------------------------------------------

      A V E R A G E S   O V E R   10000 S T E P S

 NSTEP =    10000   TIME(PS) =    5410.000  TEMP(K) =   279.77  PRESS =     0.0
 Etot   =    -56531.1424  EKtot   =     14530.4922  EPtot      =    -71061.6346
 BOND   =       826.3215  ANGLE   =       609.0853  DIHED      =       466.9165
 1-4 NB =      4443.2647  1-4 EEL =         0.0000  VDWAALS    =     13887.2174
 EELEC  =    -92677.0645  EHBOND  =         0.0000  RESTRAINT  =      1382.6246
 EAMBER (non-restraint)  =    -72444.2591
 Ewald error estimate:   0.8276E-04
 ------------------------------------------------------------------------------

      R M S  F L U C T U A T I O N S

 NSTEP =    10000   TIME(PS) =    5410.000  TEMP(K) =     2.79  PRESS =     0.0
 Etot   =       219.7457  EKtot   =       144.9282  EPtot      =       119.8779
 BOND   =        24.1498  ANGLE   =        17.3654  DIHED      =        18.6732
 1-4 NB =         2.5338  1-4 EEL =         0.0000  VDWAALS    =       143.6733
 EELEC  =       176.4629  EHBOND  =         0.0000  RESTRAINT  =        83.7640
 EAMBER (non-restraint)  =        36.1138
 Ewald error estimate:   0.6225E-04
 ------------------------------------------------------------------------------
